examples/simple-cosim/2_bus_transmission_system.raw
0, 100.0000
0 /static power system data for a power flow study
0 Bus Number, Bus Type, load P, load Q, G pu, B pu, Area Number, voltage mag., voltage ang., Bus Name, base voltage, Zone Number
    1, 3, 0.000, 0.000, 0.000, 0.000, 1, 1.05000, 0.0000, 'GeneratorBus ', 7200.0000, 2
    2, 1, 50.000, 20.000, 0.000, 0.000, 1, 1.00000, 0.0000, 'LoadBus ', 7200.0000, 2

0 / END OF BUS DATA, BEGIN BRANCH DATA
From Bus, to bus, Branch Circuit Identifier, R, X, B, Tap Ratio, Phase Shift Angle, MVA Limit, Min Tap Limit, Max Tap Limit, Step Size, Line Length, L>
1, 2, 'BL', 0.00000, 0.05000, 0.00000, 0.00, 0.00, 0.00, 0.00000, 0.000, 0.00000, 0.00000, 0.00000, 0.00000, 1

0 / END OF BRANCH DATA, BEGIN GENERATOR DATA
Bus Number, Generator Identifier, P, Q, Qmax, Qmin, Voltage Setpoint, Remote Controlled Bus Number, Base MVA, Machine R, Machine Xd, Machine Xd’, Mach>
1, '1 ', 50.000, 30.000, 99990.000, -9999.000, 1.05000, 0, 7200.000, 0.00000, 1.00000, 0.00000, 0.00000, 1.00000, 1, 100.0, 0.000, 0.000

